
test file...

new line...

text file entries...

NO MORE entries...