
test file...

new line...

text file entries...

more entries...