
test file...

new line...

text file entries...