
test file...

new line...

text file entries...


more entries...

fff...

vvv...

NO MORE entries...

